<?xml version="1.0" encoding="UTF-8"?>

<!-- generated on 2021-12-30 02:30:12 by Eclipse SUMO netconvert Version v1_10_0+0545-8430796942
<configuration xmlns:xsi="http://www.w3.org/2001/XMLSchema-instance" xsi:noNamespaceSchemaLocation="http://sumo.dlr.de/xsd/netconvertConfiguration.xsd">

    <input>
        <type-files value="/home/rida/sumo/data/typemap/osmNetconvert.typ.xml"/>
        <osm-files value="osm_bbox.osm.xml"/>
    </input>

    <output>
        <output-file value="osm.net.xml"/>
        <output.street-names value="true"/>
        <output.original-names value="true"/>
    </output>

    <projection>
        <proj.utm value="true"/>
    </projection>

    <processing>
        <geometry.remove value="true"/>
        <roundabouts.guess value="true"/>
        <lefthand value="true"/>
    </processing>

    <tls_building>
        <tls.discard-simple value="true"/>
        <tls.join value="true"/>
        <tls.guess-signals value="true"/>
        <tls.default-type value="actuated"/>
    </tls_building>

    <ramp_guessing>
        <ramps.guess value="true"/>
    </ramp_guessing>

    <edge_removal>
        <keep-edges.by-vclass value="passenger"/>
    </edge_removal>

    <junctions>
        <junctions.join value="true"/>
        <junctions.corner-detail value="5"/>
    </junctions>

    <report>
        <verbose value="true"/>
        <aggregate-warnings value="5"/>
    </report>

</configuration>
-->

<net version="1.9" junctionCornerDetail="5" lefthand="true" limitTurnSpeed="5.50" xmlns:xsi="http://www.w3.org/2001/XMLSchema-instance" xsi:noNamespaceSchemaLocation="http://sumo.dlr.de/xsd/net_file.xsd">

    <location netOffset="-489763.51,-5881960.65" convBoundary="0.00,-0.00,2329.88,2150.08" origBoundary="8.819738,53.085462,8.881919,53.112110" projParameter="+proj=utm +zone=32 +ellps=WGS84 +datum=WGS84 +units=m +no_defs"/>

    <type id="highway.bridleway" priority="1" numLanes="1" speed="2.78" allow="pedestrian" oneway="1" width="2.00"/>
    <type id="highway.bus_guideway" priority="1" numLanes="1" speed="27.78" allow="bus" oneway="1"/>
    <type id="highway.cycleway" priority="1" numLanes="1" speed="8.33" allow="bicycle" oneway="0" width="1.00"/>
    <type id="highway.footway" priority="1" numLanes="1" speed="2.78" allow="pedestrian" oneway="1" width="2.00"/>
    <type id="highway.ford" priority="1" numLanes="1" speed="2.78" allow="army" oneway="0"/>
    <type id="highway.living_street" priority="2" numLanes="1" speed="2.78" disallow="tram rail_urban rail rail_electric rail_fast ship" oneway="0"/>
    <type id="highway.motorway" priority="14" numLanes="2" speed="39.44" allow="private emergency authority army vip passenger hov taxi bus coach delivery truck trailer motorcycle evehicle custom1 custom2" oneway="1"/>
    <type id="highway.motorway_link" priority="9" numLanes="1" speed="22.22" allow="private emergency authority army vip passenger hov taxi bus coach delivery truck trailer motorcycle evehicle custom1 custom2" oneway="1"/>
    <type id="highway.path" priority="1" numLanes="1" speed="2.78" allow="pedestrian bicycle" oneway="0" width="2.00"/>
    <type id="highway.pedestrian" priority="1" numLanes="1" speed="2.78" allow="pedestrian" oneway="1" width="2.00"/>
    <type id="highway.primary" priority="12" numLanes="2" speed="27.78" disallow="tram rail_urban rail rail_electric rail_fast ship" oneway="0"/>
    <type id="highway.primary_link" priority="7" numLanes="1" speed="22.22" disallow="tram rail_urban rail rail_electric rail_fast ship" oneway="0"/>
    <type id="highway.raceway" priority="15" numLanes="2" speed="83.33" allow="vip" oneway="0"/>
    <type id="highway.residential" priority="3" numLanes="1" speed="13.89" disallow="tram rail_urban rail rail_electric rail_fast ship" oneway="0"/>
    <type id="highway.secondary" priority="11" numLanes="1" speed="27.78" disallow="tram rail_urban rail rail_electric rail_fast ship" oneway="0"/>
    <type id="highway.secondary_link" priority="6" numLanes="1" speed="22.22" disallow="tram rail_urban rail rail_electric rail_fast ship" oneway="0"/>
    <type id="highway.service" priority="1" numLanes="1" speed="5.56" allow="pedestrian delivery bicycle" oneway="0"/>
    <type id="highway.stairs" priority="1" numLanes="1" speed="1.39" allow="pedestrian" oneway="1" width="2.00"/>
    <type id="highway.step" priority="1" numLanes="1" speed="1.39" allow="pedestrian" oneway="1" width="2.00"/>
    <type id="highway.steps" priority="1" numLanes="1" speed="1.39" allow="pedestrian" oneway="1" width="2.00"/>
    <type id="highway.tertiary" priority="10" numLanes="1" speed="22.22" disallow="tram rail_urban rail rail_electric rail_fast ship" oneway="0"/>
    <type id="highway.tertiary_link" priority="5" numLanes="1" speed="22.22" disallow="tram rail_urban rail rail_electric rail_fast ship" oneway="0"/>
    <type id="highway.track" priority="1" numLanes="1" speed="5.56" allow="pedestrian motorcycle moped bicycle" oneway="0"/>
    <type id="highway.trunk" priority="13" numLanes="2" speed="27.78" disallow="pedestrian bicycle tram rail_urban rail rail_electric rail_fast ship" oneway="0"/>
    <type id="highway.trunk_link" priority="8" numLanes="1" speed="22.22" disallow="pedestrian bicycle tram rail_urban rail rail_electric rail_fast ship" oneway="0"/>
    <type id="highway.unclassified" priority="4" numLanes="1" speed="13.89" disallow="tram rail_urban rail rail_electric rail_fast ship" oneway="0"/>
    <type id="highway.unsurfaced" priority="1" numLanes="1" speed="8.33" disallow="tram rail_urban rail rail_electric rail_fast ship" oneway="0"/>
    <type id="railway.highspeed" priority="21" numLanes="1" speed="69.44" allow="rail_fast" oneway="1"/>
    <type id="railway.light_rail" priority="19" numLanes="1" speed="27.78" allow="rail_urban" oneway="1"/>
    <type id="railway.preserved" priority="16" numLanes="1" speed="27.78" allow="rail" oneway="1"/>
    <type id="railway.rail" priority="20" numLanes="1" speed="44.44" allow="rail" oneway="1"/>
    <type id="railway.subway" priority="18" numLanes="1" speed="27.78" allow="rail_urban" oneway="1"/>
    <type id="railway.tram" priority="17" numLanes="1" speed="13.89" allow="tram" oneway="1"/>

    <edge id=":1374306203_0" function="internal">
        <lane id=":1374306203_0_0" index="0" disallow="tram rail_urban rail rail_electric rail_fast ship" speed="2.78" length="4.67" shape="1565.07,1477.73 1566.08,1478.76 1566.94,1479.01 1567.65,1478.47 1568.22,1477.14"/>
    </edge>
    <edge id=":1381930222_0" function="internal">
        <lane id=":1381930222_0_0" index="0" disallow="tram rail_urban rail rail_electric rail_fast ship" speed="3.65" length="4.67" shape="1379.23,1545.04 1380.26,1546.06 1381.12,1546.29 1381.83,1545.74 1382.37,1544.40"/>
    </edge>
    <edge id=":1477924861_0" function="internal">
        <lane id=":1477924861_0_0" index="0" disallow="tram rail_urban rail rail_electric rail_fast ship" speed="3.65" length="4.67" shape="1982.41,1909.26 1983.74,1909.82 1984.63,1909.72 1985.08,1908.95 1985.09,1907.50"/>
    </edge>
    <edge id=":1811953250_0" function="internal">
        <lane id=":1811953250_0_0" index="0" disallow="tram rail_urban rail rail_electric rail_fast ship" speed="3.65" length="4.67" shape="1322.15,2010.57 1322.84,2009.30 1322.82,2008.41 1322.10,2007.89 1320.66,2007.74"/>
    </edge>
    <edge id=":1811953258_0" function="internal">
        <lane id=":1811953258_0_0" index="0" disallow="tram rail_urban rail rail_electric rail_fast ship" speed="6.66" length="9.23" shape="1279.27,2029.60 1276.85,2030.48 1274.73,2030.43 1272.91,2029.43 1271.38,2027.50"/>
    </edge>
    <edge id=":1811953258_1" function="internal">
        <lane id=":1811953258_1_0" index="0" disallow="tram rail_urban rail rail_electric rail_fast ship" speed="7.93" length="14.35" shape="1279.27,2029.60 1276.07,2031.92 1274.43,2034.70 1274.36,2037.92 1275.84,2041.58"/>
    </edge>
    <edge id=":1811953258_2" function="internal">
        <lane id=":1811953258_2_0" index="0" disallow="tram rail_urban rail rail_electric rail_fast ship" speed="3.65" length="4.67" shape="1279.27,2029.60 1278.58,2030.86 1278.60,2031.76 1279.33,2032.28 1280.76,2032.43"/>
    </edge>
    <edge id=":1811953258_3" function="internal">
        <lane id=":1811953258_3_0" index="0" disallow="tram rail_urban rail rail_electric rail_fast ship" speed="6.42" length="9.04" shape="1278.61,2039.97 1277.67,2037.66 1277.72,2035.64 1278.75,2033.89 1280.76,2032.43"/>
    </edge>
    <edge id=":1811953258_4" function="internal">
        <lane id=":1811953258_4_0" index="0" disallow="tram rail_urban rail rail_electric rail_fast ship" speed="13.89" length="14.41" shape="1278.61,2039.97 1271.38,2027.50"/>
    </edge>
    <edge id=":1811953258_5" function="internal">
        <lane id=":1811953258_5_0" index="0" disallow="tram rail_urban rail rail_electric rail_fast ship" speed="3.65" length="2.34" shape="1278.61,2039.97 1277.31,2039.34 1276.42,2039.39"/>
    </edge>
    <edge id=":1811953258_9" function="internal">
        <lane id=":1811953258_9_0" index="0" disallow="tram rail_urban rail rail_electric rail_fast ship" speed="3.65" length="2.34" shape="1276.42,2039.39 1275.93,2040.14 1275.84,2041.58"/>
    </edge>
    <edge id=":1811953258_6" function="internal">
        <lane id=":1811953258_6_0" index="0" disallow="tram rail_urban rail rail_electric rail_fast ship" speed="13.89" length="14.43" shape="1268.61,2029.10 1275.84,2041.58"/>
    </edge>
    <edge id=":1811953258_7" function="internal">
        <lane id=":1811953258_7_0" index="0" disallow="tram rail_urban rail rail_electric rail_fast ship" speed="8.13" length="5.88" shape="1268.61,2029.10 1270.98,2032.11 1272.77,2033.10"/>
    </edge>
    <edge id=":1811953258_8" function="internal">
        <lane id=":1811953258_8_0" index="0" disallow="tram rail_urban rail rail_electric rail_fast ship" speed="3.65" length="2.34" shape="1268.61,2029.10 1269.90,2029.74 1270.79,2029.69"/>
    </edge>
    <edge id=":1811953258_10" function="internal">
        <lane id=":1811953258_10_0" index="0" disallow="tram rail_urban rail rail_electric rail_fast ship" speed="8.13" length="8.37" shape="1272.77,2033.10 1273.80,2033.67 1277.06,2033.77 1280.76,2032.43"/>
    </edge>
    <edge id=":1811953258_11" function="internal">
        <lane id=":1811953258_11_0" index="0" disallow="tram rail_urban rail rail_electric rail_fast ship" speed="3.65" length="2.34" shape="1270.79,2029.69 1271.28,2028.94 1271.38,2027.50"/>
    </edge>
    <edge id=":1812509954_0" function="internal">
        <lane id=":1812509954_0_0" index="0" disallow="tram rail_urban rail rail_electric rail_fast ship" speed="2.78" length="4.67" shape="1799.67,2067.29 1799.01,2068.58 1799.05,2069.47 1799.79,2069.98 1801.22,2070.09"/>
    </edge>
    <edge id=":1812509990_0" function="internal">
        <lane id=":1812509990_0_0" index="0" disallow="tram rail_urban rail rail_electric rail_fast ship" speed="3.65" length="4.67" shape="1420.24,2098.25 1421.23,2099.30 1422.08,2099.56 1422.81,2099.03 1423.39,2097.72"/>
    </edge>
    <edge id=":1830018184_0" function="internal">
        <lane id=":1830018184_0_0" index="0" disallow="tram rail_urban rail rail_electric rail_fast ship" speed="2.78" length="4.67" shape="1952.78,1981.30 1953.41,1980.00 1953.34,1979.10 1952.59,1978.62 1951.15,1978.55"/>
    </edge>
    <edge id=":1903039745_0" function="internal">
        <lane id=":1903039745_0_0" index="0" disallow="tram rail_urban rail rail_electric rail_fast ship" speed="3.65" length="4.67" shape="2034.18,915.92 2035.19,914.89 2035.42,914.03 2034.87,913.33 2033.53,912.79"/>
    </edge>
    <edge id=":1903280620_0" function="internal">
        <lane id=":1903280620_0_0" index="0" disallow="tram rail_urban rail rail_electric rail_fast ship" speed="3.65" length="4.67" shape="912.12,1065.55 911.07,1066.53 910.80,1067.39 911.32,1068.11 912.64,1068.71"/>
    </edge>
    <edge id=":1903876595_0" function="internal">
        <lane id=":1903876595_0_0" index="0" disallow="tram rail_urban rail rail_electric rail_fast ship" speed="3.65" length="4.67" shape="1126.79,707.38 1125.69,706.45 1124.81,706.29 1124.15,706.89 1123.72,708.27"/>
    </edge>
    <edge id=":1996893565_0" function="internal">
        <lane id=":1996893565_0_0" index="0" disallow="tram rail_urban rail rail_electric rail_fast ship" speed="8.34" length="0.13" shape="1838.26,1958.61 1838.19,1958.50"/>
    </edge>
    <edge id=":1996893565_1" function="internal">
        <lane id=":1996893565_1_0" index="0" disallow="tram rail_urban rail rail_electric rail_fast ship" speed="8.34" length="0.40" shape="1835.45,1960.16 1835.67,1960.49"/>
    </edge>
    <edge id=":20958819_0" function="internal">
        <lane id=":20958819_0_0" index="0" disallow="tram rail_urban rail rail_electric rail_fast ship" speed="13.89" length="10.45" shape="1928.18,1589.24 1938.63,1589.47"/>
    </edge>
    <edge id=":20958819_1" function="internal">
        <lane id=":20958819_1_0" index="0" disallow="tram rail_urban rail rail_electric rail_fast ship" speed="5.78" length="9.75" shape="1928.18,1589.24 1931.51,1589.02 1933.46,1588.09 1934.04,1586.44 1933.23,1584.07"/>
    </edge>
    <edge id=":20958819_2" function="internal">
        <lane id=":20958819_2_0" index="0" disallow="tram rail_urban rail rail_electric rail_fast ship" speed="8.32" length="9.52" shape="1930.42,1585.61 1931.73,1587.30 1933.53,1588.50 1935.83,1589.22 1938.63,1589.47"/>
    </edge>
    <edge id=":20958819_3" function="internal">
        <lane id=":20958819_3_0" index="0" disallow="tram rail_urban rail rail_electric rail_fast ship" speed="3.65" length="4.67" shape="1930.42,1585.61 1931.70,1586.28 1932.60,1586.24 1933.11,1585.51 1933.23,1584.07"/>
    </edge>
    <edge id=":20973858_0" function="internal">
        <lane id=":20973858_0_0" index="0" disallow="tram rail_urban rail rail_electric rail_fast ship" speed="13.89" length="1.62" shape="1458.97,1153.45 1458.16,1152.05"/>
    </edge>
    <edge id=":20973858_1" function="internal">
        <lane id=":20973858_1_0" index="0" disallow="tram rail_urban rail rail_electric rail_fast ship" speed="13.89" length="1.62" shape="1459.45,1154.98 1458.96,1153.43"/>
    </edge>
    <edge id=":20973864_0" function="internal">
        <lane id=":20973864_0_0" index="0" disallow="tram rail_urban rail rail_electric rail_fast ship" speed="13.89" length="9.33" shape="1573.58,981.58 1573.35,990.91"/>
    </edge>
    <edge id=":20973864_1" function="internal">
        <lane id=":20973864_1_0" index="0" disallow="tram rail_urban rail rail_electric rail_fast ship" speed="6.09" length="7.73" shape="1573.58,981.58 1573.76,984.34 1574.33,986.31 1575.29,987.49 1576.63,987.90"/>
    </edge>
    <edge id=":20973864_2" function="internal">
        <lane id=":20973864_2_0" index="0" disallow="tram rail_urban rail rail_electric rail_fast ship" speed="6.14" length="7.72" shape="1576.66,984.70 1575.32,985.08 1574.33,986.24 1573.67,988.18 1573.35,990.91"/>
    </edge>
    <edge id=":20973864_3" function="internal">
        <lane id=":20973864_3_0" index="0" disallow="tram rail_urban rail rail_electric rail_fast ship" speed="3.65" length="4.67" shape="1576.66,984.70 1575.45,985.49 1575.04,986.29 1575.43,987.09 1576.63,987.90"/>
    </edge>
    <edge id=":20973872_0" function="internal">
        <lane id=":20973872_0_0" index="0" disallow="tram rail_urban rail rail_electric rail_fast ship" speed="6.39" length="9.04" shape="1197.75,974.17 1195.26,974.40 1193.34,973.76 1191.99,972.25 1191.21,969.88"/>
    </edge>
    <edge id=":20973872_1" function="internal">
        <lane id=":20973872_1_0" index="0" disallow="tram rail_urban rail rail_electric rail_fast ship" speed="8.16" length="14.29" shape="1197.75,974.17 1194.05,975.60 1191.65,977.82 1190.52,980.85 1190.68,984.67"/>
    </edge>
    <edge id=":20973872_2" function="internal">
        <lane id=":20973872_2_0" index="0" disallow="tram rail_urban rail rail_electric rail_fast ship" speed="3.65" length="4.67" shape="1197.75,974.17 1196.76,975.23 1196.56,976.10 1197.13,976.79 1198.48,977.29"/>
    </edge>
    <edge id=":20973872_3" function="internal">
        <lane id=":20973872_3_0" index="0" disallow="tram rail_urban rail rail_electric rail_fast ship" speed="6.69" length="9.29" shape="1193.83,984.07 1193.73,981.61 1194.47,979.66 1196.06,978.22 1198.48,977.29"/>
    </edge>
    <edge id=":20973872_4" function="internal">
        <lane id=":20973872_4_0" index="0" disallow="tram rail_urban rail rail_electric rail_fast ship" speed="8.33" length="14.43" shape="1193.83,984.07 1191.21,969.88"/>
    </edge>
    <edge id=":20973872_5" function="internal">
        <lane id=":20973872_5_0" index="0" disallow="tram rail_urban rail rail_electric rail_fast ship" speed="3.65" length="4.67" shape="1193.83,984.07 1192.82,983.04 1191.96,982.80 1191.24,983.34 1190.68,984.67"/>
    </edge>
    <edge id=":20973872_6" function="internal">
        <lane id=":20973872_6_0" index="0" disallow="tram rail_urban rail rail_electric rail_fast ship" speed="8.33" length="14.46" shape="1188.06,970.45 1190.68,984.67"/>
    </edge>
    <edge id=":20973872_7" function="internal">
        <lane id=":20973872_7_0" index="0" disallow="tram rail_urban rail rail_electric rail_fast ship" speed="7.90" length="14.41" shape="1188.06,970.45 1189.31,974.22 1191.46,976.62 1194.52,977.64 1198.48,977.29"/>
    </edge>
    <edge id=":20973872_8" function="internal">
        <lane id=":20973872_8_0" index="0" disallow="tram rail_urban rail rail_electric rail_fast ship" speed="3.65" length="4.67" shape="1188.06,970.45 1189.06,971.49 1189.91,971.74 1190.63,971.21 1191.21,969.88"/>
    </edge>
    <edge id=":20974686_0" function="internal">
        <lane id=":20974686_0_0" index="0" disallow="tram rail_urban rail rail_electric rail_fast ship" speed="3.65" length="4.67" shape="2330.14,1146.06 2331.19,1145.07 2331.45,1144.21 2330.93,1143.49 2329.61,1142.90"/>
    </edge>
    <edge id=":20974697_0" function="internal">
        <lane id=":20974697_0_0" index="0" disallow="tram rail_urban rail rail_electric rail_fast ship" speed="3.65" length="4.67" shape="2318.91,1112.55 2320.34,1112.33 2321.04,1111.77 2321.01,1110.87 2320.25,1109.64"/>
    </edge>
    <edge id=":20974731_0" function="internal">
        <lane id=":20974731_0_0" index="0" disallow="tram rail_urban rail rail_electric rail_fast ship" speed="7.89" length="9.66" shape="1397.14,915.25 1394.86,914.14 1393.19,912.57 1392.12,910.54 1391.65,908.04"/>
    </edge>
    <edge id=":20974731_1" function="internal">
        <lane id=":20974731_1_0" index="0" disallow="tram rail_urban rail rail_electric rail_fast ship" speed="8.28" length="8.35" shape="1397.14,915.25 1394.02,914.26 1391.63,913.67 1389.97,913.49 1389.05,913.71"/>
    </edge>
    <edge id=":20974731_2" function="internal">
        <lane id=":20974731_2_0" index="0" disallow="tram rail_urban rail rail_electric rail_fast ship" speed="8.25" length="8.36" shape="1390.98,916.26 1391.45,915.43 1391.71,913.78 1391.78,911.32 1391.65,908.04"/>
    </edge>
    <edge id=":20974731_3" function="internal">
        <lane id=":20974731_3_0" index="0" disallow="tram rail_urban rail rail_electric rail_fast ship" speed="3.65" length="4.67" shape="1390.98,916.26 1391.46,914.90 1391.29,914.02 1390.49,913.62 1389.05,913.71"/>
    </edge>
    <edge id=":20974908_0" function="internal">
        <lane id=":20974908_0_0" index="0" disallow="tram rail_urban rail rail_electric rail_fast ship" speed="6.89" length="9.28" shape="1290.70,848.55 1288.19,848.29 1286.27,847.32 1284.95,845.65 1284.22,843.28"/>
    </edge>
    <edge id=":20974908_1" function="internal">
        <lane id=":20974908_1_0" index="0" disallow="tram rail_urban rail rail_electric rail_fast ship" speed="8.33" length="6.98" shape="1290.70,848.55 1283.76,847.72"/>
    </edge>
    <edge id=":20974908_2" function="internal">
        <lane id=":20974908_2_0" index="0" disallow="tram rail_urban rail rail_electric rail_fast ship" speed="8.00" length="7.10" shape="1286.08,849.93 1285.70,849.79 1285.27,848.63 1284.77,846.46 1284.22,843.28"/>
    </edge>
    <edge id=":20974908_3" function="internal">
        <lane id=":20974908_3_0" index="0" disallow="tram rail_urban rail rail_electric rail_fast ship" speed="3.65" length="4.67" shape="1286.08,849.93 1286.33,848.51 1286.03,847.67 1285.17,847.41 1283.76,847.72"/>
    </edge>
    <edge id=":20980335_0" function="internal">
        <lane id=":20980335_0_0" index="0" disallow="tram rail_urban rail rail_electric rail_fast ship" speed="6.03" length="12.98" shape="681.78,622.98 681.94,618.95 680.88,617.22 678.59,617.80 675.07,620.69"/>
    </edge>
    <edge id=":20980335_1" function="internal">
        <lane id=":20980335_1_0" index="0" disallow="tram rail_urban rail rail_electric rail_fast ship" speed="3.65" length="4.67" shape="681.78,622.98 681.17,621.68 680.44,621.16 679.59,621.44 678.62,622.51"/>
    </edge>
    <edge id=":20980341_0" function="internal">
        <lane id=":20980341_0_0" index="0" disallow="tram rail_urban rail rail_electric rail_fast ship" speed="6.90" length="10.31" shape="501.36,790.33 499.29,791.72 497.11,791.98 494.80,791.10 492.37,789.09"/>
    </edge>
    <edge id=":20980341_1" function="internal">
        <lane id=":20980341_1_0" index="0" disallow="tram rail_urban rail rail_electric rail_fast ship" speed="8.33" length="14.48" shape="501.36,790.33 498.57,792.70 495.66,794.78 492.75,796.87 489.97,799.25"/>
    </edge>
    <edge id=":20980341_2" function="internal">
        <lane id=":20980341_2_0" index="0" disallow="tram rail_urban rail rail_electric rail_fast ship" speed="8.02" length="14.15" shape="492.22,801.53 494.57,798.45 495.38,795.35 494.64,792.23 492.37,789.09"/>
    </edge>
    <edge id=":20980341_3" function="internal">
        <lane id=":20980341_3_0" index="0" disallow="tram rail_urban rail rail_electric rail_fast ship" speed="3.65" length="4.67" shape="492.22,801.53 492.51,800.12 492.24,799.27 491.39,798.98 489.97,799.25"/>
    </edge>
    <edge id=":20980341_4" function="internal">
        <lane id=":20980341_4_0" index="0" disallow="tram rail_urban rail rail_electric rail_fast ship" speed="6.53" length="9.03" shape="490.07,791.32 491.52,793.32 491.99,795.31 491.47,797.29 489.97,799.25"/>
    </edge>
    <edge id=":20980341_5" function="internal">
        <lane id=":20980341_5_0" index="0" disallow="tram rail_urban rail rail_electric rail_fast ship" speed="3.65" length="4.67" shape="490.07,791.32 491.48,791.63 492.33,791.36 492.63,790.51 492.37,789.09"/>
    </edge>
    <edge id=":20980347_0" function="internal">
        <lane id=":20980347_0_0" index="0" disallow="tram rail_urban rail rail_electric rail_fast ship" speed="6.49" length="9.03" shape="349.42,914.27 347.38,915.66 345.38,916.06 343.43,915.47 341.53,913.88"/>
    </edge>
    <edge id=":20980347_1" function="internal">
        <lane id=":20980347_1_0" index="0" disallow="tram rail_urban rail rail_electric rail_fast ship" speed="8.33" length="14.30" shape="349.42,914.27 339.17,924.23"/>
    </edge>
    <edge id=":20980347_2" function="internal">
        <lane id=":20980347_2_0" index="0" disallow="tram rail_urban rail rail_electric rail_fast ship" speed="3.65" length="4.67" shape="349.42,914.27 349.08,915.67 349.32,916.53 350.16,916.85 351.58,916.63"/>
    </edge>
    <edge id=":20980347_3" function="internal">
        <lane id=":20980347_3_0" index="0" disallow="tram rail_urban rail rail_electric rail_fast ship" speed="8.33" length="14.10" shape="341.47,926.45 351.58,916.63"/>
    </edge>
    <edge id=":20980347_4" function="internal">
        <lane id=":20980347_4_0" index="0" disallow="tram rail_urban rail rail_electric rail_fast ship" speed="8.19" length="14.13" shape="341.47,926.45 343.68,923.38 344.43,920.26 343.71,917.09 341.53,913.88"/>
    </edge>
    <edge id=":20980347_5" function="internal">
        <lane id=":20980347_5_0" index="0" disallow="tram rail_urban rail rail_electric rail_fast ship" speed="3.65" length="4.67" shape="341.47,926.45 341.73,925.04 341.43,924.19 340.58,923.92 339.17,924.23"/>
    </edge>
    <edge id=":20980347_6" function="internal">
        <lane id=":20980347_6_0" index="0" disallow="tram rail_urban rail rail_electric rail_fast ship" speed="6.74" length="9.23" shape="339.15,916.02 340.59,918.13 341.07,920.20 340.60,922.24 339.17,924.23"/>
    </edge>
    <edge id=":20980347_7" function="internal">
        <lane id=":20980347_7_0" index="0" disallow="tram rail_urban rail rail_electric rail_fast ship" speed="7.99" length="14.22" shape="339.15,916.02 342.14,918.52 345.21,919.46 348.36,918.83 351.58,916.63"/>
    </edge>
    <edge id=":20980347_8" function="internal">
        <lane id=":20980347_8_0" index="0" disallow="tram rail_urban rail rail_electric rail_fast ship" speed="3.65" length="4.67" shape="339.15,916.02 340.54,916.38 341.41,916.14 341.73,915.31 341.53,913.88"/>
    </edge>
    <edge id=":20980348_0" function="internal">
        <lane id=":20980348_0_0" index="0" disallow="tram rail_urban rail rail_electric rail_fast ship" speed="6.47" length="9.08" shape="311.21,953.21 309.23,954.75 307.25,955.28 305.27,954.79 303.29,953.30"/>
    </edge>
    <edge id=":20980348_1" function="internal">
        <lane id=":20980348_1_0" index="0" disallow="tram rail_urban rail rail_electric rail_fast ship" speed="7.93" length="14.34" shape="311.21,953.21 308.90,956.41 308.20,959.55 309.13,962.64 311.67,965.66"/>
    </edge>
    <edge id=":20980348_2" function="internal">
        <lane id=":20980348_2_0" index="0" disallow="tram rail_urban rail rail_electric rail_fast ship" speed="3.65" length="4.67" shape="311.21,953.21 310.95,954.63 311.25,955.47 312.10,955.74 313.51,955.43"/>
    </edge>
    <edge id=":20980348_3" function="internal">
        <lane id=":20980348_3_0" index="0" disallow="tram rail_urban rail rail_electric rail_fast ship" speed="6.43" length="9.03" shape="313.80,963.28 312.20,961.37 311.62,959.43 312.05,957.45 313.51,955.43"/>
    </edge>
    <edge id=":20980348_4" function="internal">
        <lane id=":20980348_4_0" index="0" disallow="tram rail_urban rail rail_electric rail_fast ship" speed="8.33" length="14.49" shape="313.80,963.28 303.29,953.30"/>
    </edge>
    <edge id=":20980348_5" function="internal">
        <lane id=":20980348_5_0" index="0" disallow="tram rail_urban rail rail_electric rail_fast ship" speed="3.65" length="4.67" shape="313.80,963.28 312.37,963.08 311.54,963.40 311.30,964.27 311.67,965.66"/>
    </edge>
    <edge id=":20980348_6" function="internal">
        <lane id=":20980348_6_0" index="0" disallow="tram rail_urban rail rail_electric rail_fast ship" speed="8.33" length="14.68" shape="301.02,955.55 311.67,965.66"/>
    </edge>
    <edge id=":20980348_7" function="internal">
        <lane id=":20980348_7_0" index="0" disallow="tram rail_urban rail rail_electric rail_fast ship" speed="7.97" length="14.32" shape="301.02,955.55 304.15,957.92 307.28,958.68 310.40,957.86 313.51,955.43"/>
    </edge>
    <edge id=":20980348_8" function="internal">
        <lane id=":20980348_8_0" index="0" disallow="tram rail_urban rail rail_electric rail_fast ship" speed="3.65" length="4.67" shape="301.02,955.55 302.43,955.84 303.28,955.56 303.57,954.72 303.29,953.30"/>
    </edge>
    <edge id=":20980355_0" function="internal">
        <lane id=":20980355_0_0" index="0" disallow="tram rail_urban rail rail_electric rail_fast ship" speed="3.65" length="4.67" shape="428.13,1086.58 428.13,1088.03 428.56,1088.81 429.45,1088.92 430.79,1088.38"/>
    </edge>
    <edge id=":20980357_0" function="internal">
        <lane id=":20980357_0_0" index="0" disallow="tram rail_urban rail rail_electric rail_fast ship" speed="6.09" length="7.29" shape="531.98,1013.07 533.42,1011.71 534.12,1010.19 534.08,1008.52 533.32,1006.70"/>
    </edge>
    <edge id=":20980357_1" function="internal">
        <lane id=":20980357_1_0" index="0" disallow="tram rail_urban rail rail_electric rail_fast ship" speed="3.91" length="2.43" shape="530.57,1008.34 530.82,1008.95 530.84,1009.50 530.60,1010.01 530.12,1010.46"/>
    </edge>
    <edge id=":20980388_0" function="internal">
        <lane id=":20980388_0_0" index="0" disallow="tram rail_urban rail rail_electric rail_fast ship" speed="8.33" length="14.09" shape="1135.05,802.20 1134.15,798.71 1133.39,795.35 1132.80,791.97 1132.38,788.39"/>
    </edge>
    <edge id=":20980388_1" function="internal">
        <lane id=":20980388_1_0" index="0" disallow="tram rail_urban rail rail_electric rail_fast ship" speed="7.55" length="15.63" shape="1135.05,802.20 1133.28,798.09 1130.74,796.00 1127.42,795.94 1123.33,797.90"/>
    </edge>
    <edge id=":20980388_2" function="internal">
        <lane id=":20980388_2_0" index="0" disallow="tram rail_urban rail rail_electric rail_fast ship" speed="3.65" length="4.67" shape="1135.05,802.20 1133.97,801.25 1133.09,801.07 1132.42,801.66 1131.96,803.03"/>
    </edge>
    <edge id=":20980388_3" function="internal">
        <lane id=":20980388_3_0" index="0" disallow="tram rail_urban rail rail_electric rail_fast ship" speed="5.91" length="9.07" shape="1125.16,800.53 1127.53,799.39 1129.46,799.43 1130.93,800.64 1131.96,803.03"/>
    </edge>
    <edge id=":20980388_4" function="internal">
        <lane id=":20980388_4_0" index="0" disallow="tram rail_urban rail rail_electric rail_fast ship" speed="8.33" length="14.84" shape="1125.16,800.53 1128.54,797.82 1130.87,794.90 1132.15,791.75 1132.38,788.39"/>
    </edge>
    <edge id=":20980388_5" function="internal">
        <lane id=":20980388_5_0" index="0" disallow="tram rail_urban rail rail_electric rail_fast ship" speed="3.65" length="4.67" shape="1125.16,800.53 1125.69,799.18 1125.56,798.30 1124.77,797.87 1123.33,797.90"/>
    </edge>
    <edge id=":20980388_6" function="internal">