<?xml version="1.0" encoding="UTF-8"?>

<!-- generated on 2021-12-30 02:47:30 by Eclipse SUMO duarouter Version v1_10_0+0545-8430796942
<configuration xmlns:xsi="http://www.w3.org/2001/XMLSchema-instance" xsi:noNamespaceSchemaLocation="http://sumo.dlr.de/xsd/duarouterConfiguration.xsd">

    <input>
        <net-file value="osm.net.xml"/>
        <route-files value="osm.passenger.trips.xml"/>
    </input>

    <output>
        <output-file value="osmmap.rou.xml"/>
        <alternatives-output value="osmmap.rou.alt.xml"/>
    </output>

</configuration>
-->

<routes xmlns:xsi="http://www.w3.org/2001/XMLSchema-instance" xsi:noNamespaceSchemaLocation="http://sumo.dlr.de/xsd/routes_file.xsd">
    <vType id="veh_passenger" vClass="passenger"/>
    <vehicle id="veh0" type="veh_passenger" depart="0.00" departLane="best" departSpeed="max">
        <route edges="33557890#0 33557890#5 428260948#0 13661830#0 23594650#0 4066273#0 4066273#5 62213184#0 169824438 -171148609"/>
    </vehicle>
    <vehicle id="veh1" type="veh_passenger" depart="0.56" departLane="best">
        <route edges="-652169513 -4000166#3 170005134#1 49366189#0 13662670#0 13661830#0 23594650#0 30971967#0 4001234 326471565#2 4004445 896742597#0 896742597#2 896742597#3 896742597#4 896742597#5 30594609 230371048#3 252335422#0 -4358497#16"/>
    </vehicle>
    <vehicle id="veh2" type="veh_passenger" depart="1.11" departLane="best">
        <route edges="4000175#4 -4000175#4 -4000175#3 4360218#0 33557890#5 428260948#0 13661830#0 23594650#0 30971967#0 4001234 326471565#2 31014131#0 4000161#0 4373272#0 4003688#0 4003688#11 4003688#12"/>
    </vehicle>
    <vehicle id="veh3" type="veh_passenger" depart="1.67" departLane="best">
        <route edges="4344639#1 -3999581#8 179941126#7 179941126#9 4755304 4000161#0 4373272#0 252335411 -350700564 -29310136#15"/>
    </vehicle>
    <vehicle id="veh4" type="veh_passenger" depart="2.22" departLane="best" departSpeed="max">
        <route edges="204549621#0 4066294#1 4066274#0 30971967#0 4001234 326471565#2 31014131#0 -4755305 -179941126#10 -179941126#8 -179941126#6 -179941126#3 -179941126#0"/>
    </vehicle>
    <vehicle id="veh5" type="veh_passenger" depart="2.78" departLane="best">
        <route edges="-4281695#2 350700571#4 181925527#0 181925527#3 30594609 230371048#3 252335427#0 252335427#2 252335427#4"/>
    </vehicle>
    <vehicle id="veh6" type="veh_passenger" depart="3.33" departLane="best">
        <route edges="-171148609 -655419091 -4066273#8 -4066273#4 30971967#0 4001234 326471565#2 4004445 896742597#0 4276977#0 -4276977#10"/>
    </vehicle>
    <vehicle id="veh7" type="veh_passenger" depart="3.89" departLane="best" departSpeed="max">
        <route edges="33557890#0 33557890#5 428260948#0 13661830#0 23594650#0 30971967#0 4001234 326471565#2 31014131#0"/>
    </vehicle>
    <vehicle id="veh8" type="veh_passenger" depart="4.44" departLane="best">
        <route edges="-4281695#2 350700571#4 4373271#0 -4000161#2 -267420555#5 -326471565#2 -326471565#1 -30971967#6 -23594650#6 428260944 4243551#0 24798229#0 8398862#1 4000175#0 4000175#4 -4000175#4 312380050#0 469276265 364815699#0"/>
    </vehicle>
    <vehicle id="veh12" type="veh_passenger" depart="6.66" departLane="best">
        <route edges="652169513 -652169513 -4000166#3 170005134#1 49366189#0 13662670#0 13661830#0 23594650#0 30971967#0 4001234 326471565#2 31014131#0 -4755305 -179941126#10 -179941126#8 -179941126#6 -179941126#3 179941126#1"/>
    </vehicle>
    <vehicle id="veh13" type="veh_passenger" depart="7.22" departLane="best">
        <route edges="-296323083#1 296323083#0 296323083#2 252335423#4 168678904#0 -896742597#6 -896742597#4 -896742597#3 -896742597#2 -896742597#1 -4004445 -326471565#2 -326471565#1 -30971967#6 -23594650#6 428260944 4243551#0 24798229#0 8398862#1 4000175#0 4000175#4 -4000175#4 312380050#0 469276265 364815699#0 -364815699#1 -469276264 -312380050#1"/>
    </vehicle>
    <vehicle id="veh14" type="veh_passenger" depart="7.77" departLane="best">
        <route edges="4276977#0 -4276977#10 -896742597#1 -4004445 31014131#0 -4755305 -179941126#10 -179941126#8 3999581#0"/>
    </vehicle>
    <vehicle id="veh16" type="veh_passenger" depart="8.88" departLane="best">
        <route edges="252335422#0 -4358497#16 -4386731#1 23710470#12 168678904#0 -896742597#6 -896742597#4 -896742597#3 -896742597#2 -896742597#1 -4004445 -326471565#2 -326471565#1 -30971967#6 -23594650#6 428260944 4243551#0 24798229#0 8398862#1"/>
    </vehicle>
    <vehicle id="veh18" type="veh_passenger" depart="9.99" departLane="best">
        <route edges="4281696#0 -684987428#2 -4281695#2 350700571#4 181925527#0 358100487#0"/>
    </vehicle>
    <vehicle id="veh19" type="veh_passenger" depart="10.55" departLane="best">
        <route edges="350700571#4 4373271#0 -4000161#2 -267420555#5 -326471565#2 -326471565#1 -30971967#6 -23594650#6 428260944 4243551#0 13662669#0 -49366189#1 -220229392"/>
    </vehicle>
    <vehicle id="veh21" type="veh_passenger" depart="11.66" departLane="best">
        <route edges="-267420555#5 31014131#0 -4755305 -179941126#10 -179941126#8 -179941126#6 -179941126#3 -4372671#5"/>
    </vehicle>
    <vehicle id="veh23" type="veh_passenger" depart="12.77" departLane="best" departSpeed="max">
        <route edges="33557890#0 33557890#5 428260948#0 4008937#0 204549620 204549619#0"/>
    </vehicle>
    <vehicle id="veh25" type="veh_passenger" depart="13.88" departLane="best">
        <route edges="-541549542#1 541549542#0 -230180315#0 296323083#2 252335423#4 168678904#0 -896742597#6 -896742597#4 -896742597#3 -896742597#2 -896742597#1 -4004445 -326471565#2 -326471565#1 -30971967#6 -23594650#6 428260944 4243551#0 24798229#0 8398862#1 4000175#0 4000175#4 -4000175#4 312380050#0 469276265"/>
    </vehicle>
    <vehicle id="veh26" type="veh_passenger" depart="14.43" departLane="best" departSpeed="max">
        <route edges="33557890#0 33557890#5 428260948#0 13662669#0 -49366189#1 -220229392 4000166#0"/>
    </vehicle>
    <vehicle id="veh28" type="veh_passenger" depart="15.54" departLane="best">
        <route edges="-4004445 -326471565#2 -326471565#1 -30971967#6 -4066274#8 -117831779#0 204549619#0"/>
    </vehicle>
    <vehicle id="veh29" type="veh_passenger" depart="16.10" departLane="best" departSpeed="max">
        <route edges="252335423#0 252335423#4 168678904#0 30594608 4003688#0 4005831#0"/>
    </vehicle>
    <vehicle id="veh30" type="veh_passenger" depart="16.65" departLane="best">
        <route edges="4276976#0 -4276976#23 -4004445 -326471565#2 -326471565#1 -30971967#6 -23594650#6 428260944 4243551#0 24798229#0 24798229#5 428260942 428260946#0"/>
    </vehicle>
    <vehicle id="veh32" type="veh_passenger" depart="17.76" departLane="best">
        <route edges="117831779#1 -4066273#4 30971967#0 4001234 326471565#2 4004445 896742597#0 896742597#2 896742597#3 896742597#4 896742597#5 30594609 230371048#3 -23710470#17 4386731#0 4386754 682124153 682124151#1 -682124151#1"/>
    </vehicle>
    <vehicle id="veh33" type="veh_passenger" depart="18.32" departLane="best">
        <route edges="-4276977#10 -896742597#1 -4004445 31014131#0 -4755305 -179941126#10 179941126#9 4755304"/>
    </vehicle>
    <vehicle id="veh34" type="veh_passenger" depart="18.87" departLane="best" departSpeed="max">
        <route edges="33557890#0 33557890#5 428260948#0 4008937#0 204549620 204549619#0"/>
    </vehicle>
    <vehicle id="veh35" type="veh_passenger" depart="19.43" departLane="best">
        <route edges="4373271#0 -4000161#2 -267420555#5 4004445 896742597#0 4276977#0 -23710470#4 23710470#4"/>
    </vehicle>
    <vehicle id="veh36" type="veh_passenger" depart="19.98" departLane="best">
        <route edges="-541549542#1 541549542#0 -230180315#0 296323083#2 252335423#4 168678904#0 30594608 4373271#0 -4000161#2 -4755305"/>
    </vehicle>
    <vehicle id="veh37" type="veh_passenger" depart="20.54" departLane="best" departSpeed="max">
        <route edges="252335423#0 252335423#4 168678904#0 -896742597#6 -896742597#4 -896742597#3 -896742597#2 -896742597#1 -4004445 -326471565#2 -326471565#1 -30971967#6 4066273#0 4066273#5 62213184#0 169824438 -171148609 -655419091"/>
    </vehicle>
    <vehicle id="veh39" type="veh_passenger" depart="21.65" departLane="best" departSpeed="max">
        <route edges="204549621#0 4066294#1 4066274#0 30971967#0 4001234 326471565#2 4004445 896742597#0 4276977#0 23710470#5 -14140520#12 -4358497#10"/>
    </vehicle>
    <vehicle id="veh40" type="veh_passenger" depart="22.20" departLane="best">
        <route edges="976390100#0 -3999575#4 30594609 230371048#3 252335427#0 252335427#2 252335427#4"/>
    </vehicle>
    <vehicle id="veh41" type="veh_passenger" depart="22.76" departLane="best">
        <route edges="-29310136#15 29310136#0 3999576 4373273#0 4373271#0 -4000161#2 -267420555#5 -326471565#2 -326471565#1 -30971967#6 4066273#0 4066273#5 62213184#0 169824438 -220316143#8"/>
    </vehicle>
    <vehicle id="veh42" type="veh_passenger" depart="23.31" departLane="best">
        <route edges="-350700564 -29310136#15 29310136#0 3999576 4373273#0 4373271#0 -4000161#2 -4755305 -179941126#10 -179941126#8 -179941126#6 -4001007#1 4001007#0"/>
    </vehicle>
    <vehicle id="veh44" type="veh_passenger" depart="24.42" departLane="best">
        <route edges="-23710470#17 23710470#12 168678904#0 -896742597#6 -896742597#4 -896742597#3 -896742597#2 -896742597#1 -4004445 -326471565#2 -326471565#1 -30971967#6 -4066274#8 -117831779#0 204549619#0"/>
    </vehicle>
    <vehicle id="veh45" type="veh_passenger" depart="24.98" departLane="best">
        <route edges="973494799 -973494799 -171148609 -655419091 -4066273#8 -4066273#4 30971967#0 4001234 326471565#2 31014131#0 4000161#0 4373272#0 252335411 -350700564 -29310136#15 29310136#0"/>
    </vehicle>
    <vehicle id="veh47" type="veh_passenger" depart="26.09" departLane="best">
        <route edges="-12826653#1 12826653#0 -896742597#4 -896742597#3 -896742597#2 -896742597#1 -4004445 -326471565#2 -326471565#1 -30971967#6 -4066274#8 4066274#0"/>
    </vehicle>
    <vehicle id="veh48" type="veh_passenger" depart="26.64" departLane="best" departSpeed="max">
        <route edges="350700571#0 350700571#4 181925527#0 181925527#3 30594608"/>
    </vehicle>
    <vehicle id="veh49" type="veh_passenger" depart="27.20" departLane="best">
        <route edges="-541549542#1 541549542#0 -230180315#0 296323083#2 252335423#4 168678904#0 30594608 4373271#0 -4000161#2 -4755305 -179941126#10 -684630805#1 4001277"/>
    </vehicle>
    <vehicle id="veh50" type="veh_passenger" depart="27.75" departLane="best">
        <route edges="-350700564 -29310136#15 29310136#0 3999576 4373273#0 4373271#0 -4000161#2 -267420555#5 -326471565#2 -326471565#1 -30971967#6 -4066274#8 -117831779#0 204549623 204549625"/>
    </vehicle>
    <vehicle id="veh51" type="veh_passenger" depart="28.31" departLane="best" departSpeed="max">
        <route edges="204549621#0 204549623 204549625 204549624 13662669#0 -49366189#1 -220229392 -62213154#2 62213154#0"/>
    </vehicle>
    <vehicle id="veh52" type="veh_passenger" depart="28.86" departLane="best">
        <route edges="428260948#0 13661830#0 23594650#0 4066273#0 4066273#5 62213184#0 169824438 -171148609 -655419091"/>
    </vehicle>
    <vehicle id="veh53" type="veh_passenger" depart="29.42" departLane="best">
        <route edges="230371048#3 168678904#0 -896742597#6 -896742597#4 -896742597#3 -896742597#2 -896742597#1 -4004445 -326471565#2 -326471565#1 -30971967#6 4066273#0 -4066273#4"/>
    </vehicle>
    <vehicle id="veh54" type="veh_passenger" depart="29.97" departLane="best">
        <route edges="4372671#0 179941126#1 179941126#5 179941126#7 179941126#9 4755304 -267420555#5 -326471565#2 -326471565#1 -30971967#6 -23594650#6 428260944 4243551#0 24798229#0 24798229#5 428260942 428260946#0"/>
    </vehicle>
    <vehicle id="veh55" type="veh_passenger" depart="30.53" departLane="best">
        <route edges="312380050#0 469276265 364815699#0 -364815699#1 -469276264 -312380050#1 -4000175#3 4360218#0 33557890#5 428260948#0 13661830#0 23594650#0 30971967#0 4001234 326471565#2 4004445 -4004445"/>
    </vehicle>
    <vehicle id="veh56" type="veh_passenger" depart="31.08" departLane="best">
        <route edges="4001277 179941126#9 4755304 4000161#0 4373272#0 181925527#0 181925527#3 30594609"/>
    </vehicle>
    <vehicle id="veh58" type="veh_passenger" depart="32.19" departLane="best">
        <route edges="-117831779#0 204549623 204549625 204549624 13662669#0 -49366189#1 -220229392 -170005134#0 -25256964 25256964 170005134#0"/>
    </vehicle>
    <vehicle id="veh59" type="veh_passenger" depart="32.75" departLane="best">
        <route edges="-170005134#0 -25256964 25256964 170005134#0 170005134#1 49366189#0 13662670#0 13661830#0 23594650#0 30971967#0 4001234 326471565#2 31014131#0 4000161#0 4373272#0 252335411 4373273#0"/>
    </vehicle>
    <vehicle id="veh60" type="veh_passenger" depart="33.30" departLane="best">
        <route edges="-896742597#6 896742597#5 30594609 230371048#3 -23710470#17 -23710470#11"/>
    </vehicle>
    <vehicle id="veh64" type="veh_passenger" depart="35.52" departLane="best">
        <route edges="4001285#0 4001277 179941126#9 4755304 -267420555#5 -326471565#2 -326471565#1 -30971967#6 -23594650#6 428260944 4243551#0 13662669#0 -49366189#1 -220229392 4000166#0 652169513 -652169513 -4000166#3"/>
    </vehicle>
    <vehicle id="veh65" type="veh_passenger" depart="36.08" departLane="best">
        <route edges="204549624 13661830#0 23594650#0 30971967#0 4001234 326471565#2"/>
    </vehicle>
    <vehicle id="veh66" type="veh_passenger" depart="36.64" departLane="best">
        <route edges="-541549542#1 541549542#0 -230180315#0 296323083#2 252335423#4 168678904#0 -896742597#6 -896742597#4 -896742597#3 -896742597#2 -896742597#1 -4004445 -326471565#2 -326471565#1 -30971967#6 -23594650#6 428260944 4243551#0 24798229#0 24798229#5 428260942 428260946#0"/>
    </vehicle>
    <vehicle id="veh68" type="veh_passenger" depart="37.75" departLane="best" departSpeed="max">
        <route edges="252335423#0 252335423#4 168678904#0 -896742597#6 -896742597#4 -896742597#3 -896742597#2 -896742597#1 -4004445 -326471565#2 -326471565#1 -30971967#6 -23594650#6 428260944 4243551#0"/>
    </vehicle>
    <vehicle id="veh69" type="veh_passenger" depart="38.30" departLane="best">
        <route edges="-4276975#2 -896742597#3 -896742597#2 -896742597#1 -4004445 -326471565#2 -326471565#1 -30971967#6 -23594650#6 428260944 4243551#0 13662669#0"/>
    </vehicle>
    <vehicle id="veh70" type="veh_passenger" depart="38.86" departLane="best">
        <route edges="973494799 -973494799 -171148609 -655419091 -4066273#8 -4066273#4 30971967#0 4001234 326471565#2 31014131#0 4000161#0 4373272#0 4003688#0 4003688#11"/>
    </vehicle>
    <vehicle id="veh71" type="veh_passenger" depart="39.41" departLane="best" departSpeed="max">
        <route edges="204549621#0 204549623 204549625 204549624 13662669#0 -49366189#1 -220229392 -170005134#0 -25256964 25256964"/>
    </vehicle>
    <vehicle id="veh72" type="veh_passenger" depart="39.97" departLane="best">
        <route edges="-3999575#4 30594609 230371048#3 252335422#0 -4358497#16"/>
    </vehicle>
    <vehicle id="veh73" type="veh_passenger" depart="40.52" departLane="best">
        <route edges="168678904#0 -896742597#6 -896742597#4 -896742597#3 -896742597#2 -896742597#1 -4004445 -326471565#2 -326471565#1 -30971967#6 -23594650#6 428260944 4243551#0 24798229#0 8398862#1 4000175#0 4000175#4 -4000175#4 312380050#0 469276265 364815699#0"/>
    </vehicle>
    <vehicle id="veh76" type="veh_passenger" depart="42.19" departLane="best">
        <route edges="4281696#0 -684987428#2 -4281695#2 350700571#4 4373271#0 -4000161#2 -267420555#5 -326471565#2 -326471565#1 -30971967#6 -23594650#6 428260944 4243551#0 13662669#0 -49366189#1 -220229392 -170005134#0 -25256964"/>
    </vehicle>
    <vehicle id="veh77" type="veh_passenger" depart="42.74" departLane="best">
        <route edges="-4358497#16 -4386731#1 23710470#12 168678904#0 30594608 4003688#0 4003688#11 4003688#12"/>
    </vehicle>
    <vehicle id="veh78" type="veh_passenger" depart="43.30" departLane="best">
        <route edges="-4276978#1 -23710470#8 -4276977#10 -896742597#1 -4004445 -326471565#2 -326471565#1 -30971967#6 -23594650#6 428260944 4243551#0 24798229#0 8398862#1 4000175#0 4000175#4 -4000175#4 -4000175#3"/>
    </vehicle>
    <vehicle id="veh79" type="veh_passenger" depart="43.85" departLane="best">
        <route edges="4755204#0 -4755204#1 23710470#0 23710470#4 23710470#5 23710470#9 23710470#12 168678904#0 30594608 181925527#0 358100487#0"/>
    </vehicle>
    <vehicle id="veh80" type="veh_passenger" depart="44.41" departLane="best">
        <route edges="204549623 204549625 204549624 24798229#0 24798229#5 428260942 428260946#0"/>
    </vehicle>
    <vehicle id="veh82" type="veh_passenger" depart="45.52" departLane="best">
        <route edges="-296323083#2 296323083#2 252335423#4 168678904#0 -896742597#6 -896742597#4 -896742597#3 -896742597#2 -896742597#1 -4004445 -326471565#2 -326471565#1 -30971967#6 -4066274#8 -117831779#0 204549623 204549625 204549624"/>
    </vehicle>
    <vehicle id="veh83" type="veh_passenger" depart="46.07" departLane="best" departSpeed="max">
        <route edges="204549621#0 204549623 204549625 204549624 24798229#0"/>
    </vehicle>
    <vehicle id="veh84" type="veh_passenger" depart="46.63" departLane="best">
        <route edges="4000161#0 4373272#0 4003688#0 4003688#11 4003688#12"/>
    </vehicle>
    <vehicle id="veh85" type="veh_passenger" depart="47.18" departLane="best">
        <route edges="896742597#2 -896742597#2 -896742597#1 -4004445 -326471565#2 -326471565#1"/>
    </vehicle>
    <vehicle id="veh86" type="veh_passenger" depart="47.74" departLane="best" departSpeed="max">
        <route edges="204549621#0 4066294#1 4066274#0 30971967#0 4001234 326471565#2 31014131#0 -4755305 -179941126#10 -179941126#8 -179941126#6 179941126#5"/>
    </vehicle>
    <vehicle id="veh87" type="veh_passenger" depart="48.29" departLane="best">
        <route edges="4281696#0 -684987428#2 -4281695#2 350700571#4 4373271#0 -4000161#2 -267420555#5 -326471565#2 -326471565#1 -30971967#6 -23594650#6 428260944 4243551#0 13662669#0 -49366189#1"/>
    </vehicle>
    <vehicle id="veh89" type="veh_passenger" depart="49.40" departLane="best">
        <route edges="-4386731#1 23710470#12 168678904#0 30594608 4373271#0 -4000161#2 4000161#0 4373272#0"/>
    </vehicle>
    <vehicle id="veh90" type="veh_passenger" depart="49.96" departLane="best" departSpeed="max">
        <route edges="204549621#0 204549623 204549625 204549624 24798229#0 24798229#5 428260942 428260946#0"/>
    </vehicle>
    <vehicle id="veh91" type="veh_passenger" depart="50.51" departLane="best">
        <route edges="976390100#0 -3999575#4 -896742597#6 -896742597#4 -896742597#3 -896742597#2 -896742597#1 -4004445 -326471565#2 -326471565#1 -30971967#6 -23594650#6 428260944 4243551#0 24798229#0 24798229#5 428260942 428260946#0"/>
    </vehicle>
    <vehicle id="veh93" type="veh_passenger" depart="51.62" departLane="best">
        <route edges="4276978#0 -4276978#1 23710470#9 23710470#12 168678904#0 976390100#0 4006423#0 -4006423#7"/>
    </vehicle>
    <vehicle id="veh95" type="veh_passenger" depart="52.73" departLane="best" departSpeed="max">
        <route edges="204549621#0 4066294#1 4066274#0 30971967#0 4001234 326471565#2 4004445 896742597#0 896742597#2 896742597#3 896742597#4 896742597#5 30594609 230371048#3 -23710470#17 -23710470#11"/>
    </vehicle>
    <vehicle id="veh96" type="veh_passenger" depart="53.29" departLane="best">
        <route edges="204549620 4066294#1 4066274#0 30971967#0 4001234 326471565#2 4004445 896742597#0 896742597#2"/>
    </vehicle>
    <vehicle id="veh97" type="veh_passenger" depart="53.84" departLane="best">
        <route edges="-541549542#1 541549542#0 -230180315#0 296323083#2 252335423#4 168678904#0 -896742597#6 -896742597#4 -896742597#3 -896742597#2 -896742597#1 -4004445 -326471565#2 -326471565#1 -30971967#6 -23594650#6 428260944 4243551#0 24798229#0 24798229#5 428260942 428260946#0"/>
    </vehicle>
    <vehicle id="veh98" type="veh_passenger" depart="54.40" departLane="best" departSpeed="max">
        <route edges="204549621#0 204549623 204549625 204549624"/>
    </vehicle>
    <vehicle id="veh99" type="veh_passenger" depart="54.95" departLane="best">
        <route edges="652169513 -652169513 -4000166#3 170005134#1 49366189#0 13662670#0 13661830#0 23594650#0 4066273#0 4066273#5 62213184#0 169824438 973494799"/>
    </vehicle>
    <vehicle id="veh100" type="veh_passenger" depart="55.51" departLane="best" departSpeed="max">
        <route edges="252335423#0 252335423#4 168678904#0 -896742597#6 -896742597#4 -896742597#3 -896742597#2 -896742597#1 -4004445 -326471565#2 -326471565#1 -30971967#6 4066273#0 4066273#5"/>
    </vehicle>
    <vehicle id="veh103" type="veh_passenger" depart="57.17" departLane="best" departSpeed="max">
        <route edges="252335423#0 252335423#4 -23710470#17 -23710470#11 4276978#0"/>
    </vehicle>
    <vehicle id="veh104" type="veh_passenger" depart="57.73" departLane="best">
        <route edges="-230180315#2 -230180315#0 296323083#2 252335423#4 168678904#0 30594608 181925527#0 358100487#0"/>
    </vehicle>
    <vehicle id="veh105" type="veh_passenger" depart="58.28" departLane="best">
        <route edges="230371048#3 168678904#0 -896742597#6 -896742597#4 -896742597#3 -896742597#2 -896742597#1 -4004445 -326471565#2 -326471565#1 -30971967#6 -23594650#6 428260944 4243551#0 24798229#0 24798229#5 428260942 428260946#0"/>
    </vehicle>
    <vehicle id="veh106" type="veh_passenger" depart="58.84" departLane="best">
        <route edges="-4001285#1 -4001285#3 4001277 179941126#9 4755304 -267420555#5 -326471565#2 -326471565#1 -30971967#6 -23594650#6 428260944 4243551#0 13662669#0 -49366189#1 -220229392 4000166#0 652169513"/>
    </vehicle>
    <vehicle id="veh107" type="veh_passenger" depart="59.39" departLane="best">
        <route edges="-267420555#5 -326471565#2 -326471565#1 -30971967#6 4066273#0 4066273#5 62213184#0 169824438 4066279#0 -4066279#2"/>
    </vehicle>
    <vehicle id="veh108" type="veh_passenger" depart="59.95" departLane="best">
        <route edges="30594608 4003688#0 4003688#11 4003688#12"/>
    </vehicle>
    <vehicle id="veh109" type="veh_passenger" depart="60.50" departLane="best">
        <route edges="-4358497#14 4358497#11 -4386731#1 23710470#12 168678904#0 976390100#0 3999575#5 3999575#8 -3999575#9"/>
    </vehicle>
    <vehicle id="veh111" type="veh_passenger" depart="61.61" departLane="best" departSpeed="max">
        <route edges="204549621#0 4066294#1 4066274#0 30971967#0 4001234 326471565#2 31014131#0 4000161#0 4373272#0 181925527#0 358100487#0"/>
    </vehicle>
    <vehicle id="veh112" type="veh_passenger" depart="62.17" departLane="best">
        <route edges="24798229#0 33557890#5 428260948#0 13661830#0 23594650#0 30971967#0 4001234 326471565#2 4004445 896742597#0 896742597#2 896742597#3 896742597#4 896742597#5 30594609 230371048#3 -23710470#17 4386731#0 4386754"/>
    </vehicle>
    <vehicle id="veh113" type="veh_passenger" depart="62.72" departLane="best">
        <route edges="-4276975#3 -4276975#2 -896742597#3 -896742597#2 -896742597#1 -4004445 -326471565#2 -326471565#1 -30971967#6 4066273#0"/>
    </vehicle>
    <vehicle id="veh114" type="veh_passenger" depart="63.28" departLane="best">
        <route edges="-4358497#17 -4358497#16 -4386731#1 23710470#12 168678904#0 -896742597#6 -896742597#4 -896742597#3 -896742597#2 -896742597#1 -4004445 -326471565#2 -326471565#1 -30971967#6 -4066274#8 -117831779#0 204549619#0"/>
    </vehicle>
    <vehicle id="veh117" type="veh_passenger" depart="64.94" departLane="best">
        <route edges="976390100#0 -3999575#4 -896742597#6 -896742597#4 -896742597#3 -896742597#2 -896742597#1 -4004445 -326471565#2 -326471565#1 -30971967#6 4066273#0 4066273#5 62213184#0 169824438 973494799"/>
    </vehicle>
    <vehicle id="veh120" type="veh_passenger" depart="66.61" departLane="best">
        <route edges="326471565#2 4004445 896742597#0 896742597#2 896742597#3"/>
    </vehicle>
    <vehicle id="veh123" type="veh_passenger" depart="68.27" departLane="best" departSpeed="max">
        <route edges="33557890#0 33557890#5 428260948#0 13661830#0 23594650#0 30971967#0 4001234 326471565#2 4004445 4276976#0 4755204#0"/>
    </vehicle>
    <vehicle id="veh124" type="veh_passenger" depart="68.83" departLane="best">
        <route edges="-326471565#2 -326471565#1 -30971967#6 -23594650#6 428260944 4243551#0 24798229#0 33557890#5"/>
    </vehicle>
    <vehicle id="veh125" type="veh_passenger" depart="69.38" departLane="best">
        <route edges="-62213154#2 62213154#0 170005134#1 49366189#0 13662670#0 13661830#0 23594650#0 30971967#0 4001234 326471565#2 31014131#0 -4755305 -179941126#10 -179941126#8 3999581#0"/>
    </vehicle>
    <vehicle id="veh126" type="veh_passenger" depart="69.94" departLane="best">
        <route edges="3999575#5 -3999575#7 -3999575#4 30594609 230371048#3 -23710470#17 -23710470#11 4276978#0 -4276978#1"/>
    </vehicle>
    <vehicle id="veh127" type="veh_passenger" depart="70.49" departLane="best" departSpeed="max">
        <route edges="33557890#0 33557890#5 428260948#0 13661830#0 23594650#0 30971967#0 4001234 326471565#2 4004445 896742597#0 896742597#2 896742597#3 896742597#4 896742597#5 30594609 230371048#3 -23710470#17 4386731#0 4386754 682124153 -682124151#0"/>
    </vehicle>
    <vehicle id="veh128" type="veh_passenger" depart="71.05" departLane="best">
        <route edges="204549625 204549624 13661830#0 23594650#0 30971967#0 4001234 326471565#2 4004445 896742597#0 896742597#2 896742597#3 896742597#4 896742597#5 30594609 230371048#3 252335422#0 -4358497#16 4358497#15"/>
    </vehicle>
    <vehicle id="veh130" type="veh_passenger" depart="72.16" departLane="best" departSpeed="max">
        <route edges="204549621#0 4066294#1 4066274#0 30971967#0 4001234 326471565#2 4004445 896742597#0 896742597#2 896742597#3 4276975#0 -75551313#1"/>
    </vehicle>
    <vehicle id="veh131" type="veh_passenger" depart="72.72" departLane="best">
        <route edges="-117831779#11 4066274#0 -23594650#6 428260944"/>
    </vehicle>
    <vehicle id="veh132" type="veh_passenger" depart="73.27" departLane="best" departSpeed="max">
        <route edges="33557890#0 33557890#5 428260948#0 13661830#0 23594650#0 4066273#0 4066273#5 62213184#0 169824438 -171148609 -655419091"/>
    </vehicle>
    <vehicle id="veh134" type="veh_passenger" depart="74.38" departLane="best" departSpeed="max">
        <route edges="204549621#0 4066294#1 4066274#0 30971967#0 4001234 326471565#2 4004445 896742597#0 896742597#2 896742597#3 896742597#4 -12826653#1"/>
    </vehicle>
    <vehicle id="veh135" type="veh_passenger" depart="74.94" departLane="best">
        <route edges="-25256964 25256964 170005134#0 170005134#1 49366189#0 13662670#0 24798229#0 33557890#5 428260948#0"/>
    </vehicle>
    <vehicle id="veh136" type="veh_passenger" depart="75.49" departLane="best">
        <route edges="4358497#17 -4358497#17 -4358497#16 -4386731#1 23710470#12 168678904#0 -896742597#6 -896742597#4 -896742597#3 -896742597#2 -896742597#1 -4004445 31014131#0"/>
    </vehicle>
    <vehicle id="veh137" type="veh_passenger" depart="76.05" departLane="best">
        <route edges="4243551#0 13661830#0 23594650#0 30971967#0 4001234 326471565#2 31014131#0 4000161#0 4373272#0 181925527#0 358100487#0"/>
    </vehicle>
    <vehicle id="veh139" type="veh_passenger" depart="77.16" departLane="best">
        <route edges="-896742597#6 896742597#5 30594608 4373271#0 -4000161#2 -4755305 -179941126#10 -179941126#8 3999581#0 4344639#0 4344639#1"/>
    </vehicle>
    <vehicle id="veh140" type="veh_passenger" depart="77.71" departLane="best">
        <route edges="4006423#0 -4006423#7 -3999575#4 -896742597#6 -896742597#4 -896742597#3 -896742597#2 -896742597#1 -4004445 -326471565#2 -326471565#1 -30971967#6 -23594650#6 428260944 4243551#0 24798229#0 24798229#5 428260942 428260946#0"/>
    </vehicle>
    <vehicle id="veh142" type="veh_passenger" depart="78.82" departLane="best">
        <route edges="-4386731#1 23710470#12 168678904#0 -896742597#6 -896742597#4 -896742597#3 -896742597#2 -896742597#1 -4004445 -326471565#2"/>
    </vehicle>
    <vehicle id="veh144" type="veh_passenger" depart="79.93" departLane="best" departSpeed="max">
        <route edges="204549621#0 4066294#1 4066274#0 30971967#0 4001234 326471565#2 31014131#0 -4755305 -179941126#10 -179941126#8 -179941126#6 -285349170#3 4000187#0"/>
    </vehicle>
    <vehicle id="veh147" type="veh_passenger" depart="81.60" departLane="best">
        <route edges="4066271#0 -4066273#8 -4066273#4 -23594650#6 428260944 4243551#0 24798229#0 33557890#5 428260948#0"/>
    </vehicle>
    <vehicle id="veh149" type="veh_passenger" depart="82.71" departLane="best">
        <route edges="13662670#0 13661830#0 23594650#0 30971967#0 4001234 326471565#2 4004445 896742597#0 896742597#2 896742597#3 896742597#4 896742597#5 30594609 230371048#3 -23710470#17 4386731#0"/>
    </vehicle>
    <vehicle id="veh150" type="veh_passenger" depart="83.26" departLane="best">
        <route edges="4008937#0 204549620 204549623 204549625 204549624 24798229#0 24798229#5 428260942 428260946#0"/>
    </vehicle>
    <vehicle id="veh151" type="veh_passenger" depart="83.82" departLane="best">
        <route edges="4066271#0 -4066273#8 -4066273#4 30971967#0 4001234 326471565#2 4004445 896742597#0 896742597#2 896742597#3 896742597#4 896742597#5 30594609 230371048#3 -23710470#17 4386731#0 4386754 682124153 682124151#1 -682124151#1"/>
    </vehicle>
    <vehicle id="veh153" type="veh_passenger" depart="84.93" departLane="best">
        <route edges="428260944 4243551#0 24798229#0 24798229#5 428260942 428260946#0"/>
    </vehicle>